Version 4
SHEET 1 1280 680
WIRE 672 -320 -208 -320
WIRE -16 -224 -48 -224
WIRE -16 -144 -16 -224
WIRE -16 -144 -80 -144
WIRE -128 -112 -128 -224
WIRE -80 -112 -80 -144
WIRE -16 -112 -16 -144
WIRE -208 -64 -208 -320
WIRE -144 -64 -208 -64
WIRE 16 -64 -64 -64
WIRE 96 -64 16 -64
WIRE 304 -64 96 -64
WIRE 464 -64 304 -64
WIRE 592 -64 464 -64
WIRE 592 32 592 -64
WIRE 464 48 464 -64
WIRE -208 80 -208 -64
WIRE 16 80 16 -64
WIRE 304 96 304 -64
WIRE 672 112 672 -320
WIRE 800 128 784 128
WIRE 464 144 464 112
WIRE 592 144 592 112
WIRE 592 144 464 144
WIRE 672 144 592 144
WIRE 96 176 96 -64
WIRE 592 240 592 144
WIRE -208 368 -208 160
WIRE 16 368 16 160
WIRE 96 368 96 240
WIRE 304 368 304 160
WIRE 592 368 592 304
FLAG 592 368 0
FLAG -208 368 0
FLAG -16 -112 0
FLAG 800 128 out
FLAG 304 368 0
FLAG 96 368 0
FLAG 16 368 0
SYMBOL cap 576 240 R0
SYMATTR InstName C1
SYMATTR Value 2.2µ
SYMBOL res 608 128 R180
WINDOW 0 36 76 Left 2
WINDOW 3 36 40 Left 2
SYMATTR InstName R1
SYMATTR Value 1Meg
SYMBOL voltage -208 64 R0
WINDOW 123 0 0 Left 2
WINDOW 39 0 0 Left 2
SYMATTR InstName V1
SYMATTR Value 5
SYMBOL sw -48 -64 R90
SYMATTR InstName S1
SYMATTR Value MYSW
SYMBOL voltage -144 -224 R270
WINDOW 123 0 0 Left 2
WINDOW 39 0 0 Left 2
SYMATTR InstName V2
SYMATTR Value PULSE(5 0 1 10n 10n 1 11)
SYMBOL cap 288 96 R0
SYMATTR InstName C2
SYMATTR Value 10µ
SYMBOL 74HCT\\74hct08 720 64 R0
SYMATTR InstName U1
SYMBOL cap 80 176 R0
SYMATTR InstName C3
SYMATTR Value 100n
SYMBOL res 0 64 R0
SYMATTR InstName R6
SYMATTR Value 10k
SYMBOL diode 480 112 R180
WINDOW 0 24 64 Left 2
WINDOW 3 24 0 Left 2
SYMATTR InstName D1
SYMATTR Value 1N4148
TEXT 696 8 Left 2 !.lib 74hct.lib
TEXT 704 -48 Left 2 !.model MYSW SW(Ron=1 Roff=10Meg Vt=.5 Vh=-.4)
TEXT 480 -272 Left 2 !.tran 0 100 0 1 startup uic
